Examples/IBRDynamics_Cases/GFL_IEEE123/IEEE123Master.dss
! Annotated Master file for the IEEE 123-bus test case.
!
! This file is meant to be invoked from the Compile command in the "Run_IEEE123Bus.DSS"  file.
! 
! Note: DSS commands, property names, etc., are NOT case sensitive. Capitalize as you please.
! You should always do a "Clear" before making a new circuit:

Clear
Set DefaultBaseFrequency=60

! INSTANTIATE A NEW CIRCUIT AND DEFINE A STIFF 4160V SOURCE
! The new circuit is called "ieee123"
! This creates a Vsource object connected to "sourcebus". This is now the active circuit element, so
! you can simply continue to edit its property value. 
! The basekV is redefined to 4.16 kV. The bus name is changed to "150" to match one of the buses in the test feeder.
! The source is set for 1.0 per unit and the Short circuit impedance is set to a small value (0.0001 ohms)
! The ~ is just shorthad for "more" for the New or Edit commands

New object=circuit.ieee123
~ basekv=4.16 Bus1=150 pu=1.00 R1=0 X1=0.0001 R0=0 X0=0.0001

! 3-PHASE GANGED REGULATOR AT HEAD OF FEEDER (KERSTING ASSUMES NO IMPEDANCE IN THE REGULATOR)
! the first line defines the 3-phase transformer to be controlled by the regulator control.
! The 2nd line defines the properties of the regulator control according to the test case

new transformer.reg1a phases=3 windings=2 buses=[150 150r] conns=[wye wye] kvs=[4.16 4.16] kvas=[5000 5000] XHL=.001 %LoadLoss=0.00001 ppm=0.0
new regcontrol.creg1a transformer=reg1a winding=2 vreg=120 band=2 ptratio=20 ctprim=700 R=3 X=7.5

! REDIRECT INPUT STREAM TO FILE CONTAINING DEFINITIONS OF LINECODES
! This file defines the line impedances is a similar manner to the description in the test case.
New "LoadShape.pvshape" npts=1440 minterval=1 mult=[ 0.00384025 0.00384025 0.00384025 0.00384025 0.00384025 0.00384025 0.00384025 0.00384025 0.00384025 0.00384025 0.00384025 0.00384025 0.00384025 0.00384025 0.00384025 0.00384025 0.00384025 0.00384025 0.00384025 0.00384025 0.00384025 0.00384025 0.00384025 0.00384025 0.00384025 0.00384025 0.00384025 0.00384025 0.00384025 0.00384025 0.00384025 0.00384025 0.00384025 0.00384025 0.00384025 0.00384025 0.00384025 0.00384025 0.00384025 0.00384025 0.00384025 0.00384025 0.00384025 0.00384025 0.00384025 0.00384025 0.00384025 0.00384025 0.00384025 0.00384025 0.00384025 0.00384025 0.00384025 0.00384025 0.00384025 0.00384025 0.00384025 0.00384025 0.00384025 0.00384025 0.00384025 0.00384025 0.00384025 0.00384025 0.00384025 0.00384025 0.00384025 0.00384025 0.00384025 0.00384025 0.00384025 0.00384025 0.00384025 0.00384025 0.00384025 0.00384025 0.00384025 0.00384025 0.00384025 0.00384025 0.00384025 0.00384025 0.00384025 0.00384025 0.00384025 0.00384025 0.00384025 0.00384025 0.00384025 0.00384025 0.00384025 0.00384025 0.00384025 0.00384025 0.00384025 0.00384025 0.00384025 0.00384025 0.00384025 0.00384025 0.00384025 0.00384025 0.00384025 0.00384025 0.00384025 0.00384025 0.00384025 0.00384025 0.00384025 0.00384025 0.00384025 0.00384025 0.00384025 0.00384025 0.00384025 0.00384025 0.00384025 0.00384025 0.00384025 0.00384025 0.00384025 0.00384025 0.00384025 0.00384025 0.00384025 0.00384025 0.00384025 0.00384025 0.00384025 0.00384025 0.00384025 0.00384025 0.00384025 0.00384025 0.00384025 0.00384025 0.00384025 0.00384025 0.00384025 0.00384025 0.00384025 0.00384025 0.00384025 0.00384025 0.00384025 0.00384025 0.00384025 0.00384025 0.00384025 0.00384025 0.00384025 0.00384025 0.00384025 0.00384025 0.00384025 0.00384025 0.00384025 0.00384025 0.00384025 0.00384025 0.00384025 0.00384025 0.00384025 0.00384025 0.00384025 0.00384025 0.00384025 0.00384025 0.00384025 0.00384025 0.00384025 0.00384025 0.00384025 0.00384025 0.00384025 0.00384025 0.00384025 0.00384025 0.00384025 0.00384025 0.00384025 0.00384025 0.00384025 0.00384025 0.00384025 0.00384025 0.00384025 0.00384025 0.00384025 0.00384025 0.00384025 0.00384025 0.00384025 0.00384025 0.00384025 0.00384025 0.00384025 0.00384025 0.00384025 0.00384025 0.00384025 0.00384025 0.00384025 0.00384025 0.00384025 0.00384025 0.00384025 0.00384025 0.00384025 0.00384025 0.00384025 0.00384025 0.00384025 0.00384025 0.00384025 0.00384025 0.00384025 0.00384025 0.00384025 0.00384025 0.00384025 0.00384025 0.00384025 0.00384025 0.00384025 0.00384025 0.00384025 0.00384025 0.00384025 0.00384025 0.00384025 0.00384025 0.00384025 0.00384025 0.00384025 0.00384025 0.00384025 0.00384025 0.00384025 0.00384025 0.00384025 0.00384025 0.00384025 0.00384025 0.00384025 0.00384025 0.00384025 0.00384025 0.00384025 0.00384025 0.00384025 0.00384025 0.00384025 0.00384025 0.00384025 0.00384025 0.00384025 0.00384025 0.00384025 0.00384025 0.00384025 0.00384025 0.00384025 0.00384025 0.00384025 0.00384025 0.00384025 0.00384025 0.00384025 0.00384025 0.00384025 0.00384025 0.00384025 0.00384025 0.00384025 0.00384025 0.00384025 0.00384025 0.00384025 0.00384025 0.00384025 0.00384025 0.00384025 0.00384025 0.00384025 0.00384025 0.00384025 0.00384025 0.00384025 0.00384025 0.00384025 0.00384025 0.00384025 0.00384025 0.00384025 0.00384025 0.00384025 0.00384025 0.00384025 0.00384025 0.00384025 0.00384025 0.00384025 0.00384025 0.00384025 0.00384025 0.00384025 0.00384025 0.00384025 0.00384025 0.00384025 0.00384025 0.00384025 0.00384025 0.00384025 0.00384025 0.00384025 0.00384025 0.00384025 0.00384025 0.00384025 0.00384025 0.00384025 0.00384025 0.00384025 0.00384025 0.00384025 0.00384025 0.00384025 0.00384025 0.00384025 0.00384025 0.00384025 0.00384025 0.00384025 0.00384025 0.00384025 0.00384025 0.00460829 0.00614439 0.00844854 0.0115207 0.0145929 0.0176651 0.0192012 0.0199693 0.0207373 0.0215054 0.0215054 0.0215054 0.0215054 0.0222734 0.0230415 0.0230415 0.0238095 0.0245776 0.0245776 0.0245776 0.0245776 0.0253456 0.0261137 0.0261137 0.0261137 0.0276498 0.0284178 0.0299539 0.03149 0.0330261 0.0353303 0.0384025 0.0407066 0.0437788 0.0460829 0.047619 0.0491551 0.0506912 0.0514593 0.0514593 0.0514593 0.0499232 0.0499232 0.0506912 0.0514593 0.0514593 0.0529954 0.0529954 0.0545315 0.0576037 0.06298 0.0675883 0.0576037 0.0506912 0.0499232 0.0491551 0.0506912 0.0583717 0.0675883 0.0698925 0.0668203 0.0614439 0.0591398 0.062212 0.0660522 0.0698925 0.0691244 0.0814132 0.111367 0.133641 0.152074 0.145161 0.142857 0.132104 0.139017 0.144393 0.15745 0.15361 0.15361 0.165131 0.176651 0.184332 0.193548 0.195084 0.197389 0.1851 0.167435 0.141321 0.151306 0.175883 0.193548 0.185868 0.187404 0.198157 0.177419 0.167435 0.184332 0.200461 0.206605 0.209677 0.195084 0.196621 0.208141 0.215054 0.221966 0.215054 0.202765 0.215054 0.218894 0.236559 0.240399 0.238095 0.208141 0.232719 0.237327 0.230415 0.215822 0.213518 0.188172 0.198157 0.221966 0.241167 0.248848 0.249616 0.248848 0.250384 0.256528 0.258833 0.262673 0.264977 0.268049 0.273425 0.277266 0.280338 0.284178 0.288018 0.291859 0.295699 0.298771 0.302611 0.309524 0.31874 0.328725 0.337942 0.311828 0.310292 0.340246 0.295699 0.301075 0.302611 0.309524 0.239631 0.163594 0.173579 0.28341 0.374808 0.376344 0.375576 0.368664 0.37404 0.384793 0.307988 0.158986 0.164363 0.180492 0.260369 0.349462 0.384025 0.333333 0.245008 0.300307 0.328725 0.414747 0.417051 0.421659 0.431644 0.435484 0.441628 0.450845 0.463134 0.460061 0.466206 0.461598 0.446237 0.461598 0.456221 0.478495 0.408602 0.500768 0.489247 0.448541 0.238863 0.256528 0.241935 0.292627 0.380184 0.459293 0.515361 0.426267 0.546083 0.558372 0.269585 0.473118 0.278034 0.301075 0.373272 0.46851 0.341782 0.254992 0.201229 0.286482 0.349462 0.419355 0.505376 0.516897 0.513057 0.519201 0.519969 0.521505 0.522273 0.524578 0.52765 0.530722 0.533026 0.533026 0.536098 0.533026 0.530722 0.533794 0.543779 0.539171 0.544547 0.552995 0.55914 0.56682 0.572965 0.577573 0.580645 0.573733 0.597542 0.602151 0.528418 0.606759 0.61828 0.624424 0.629032 0.635177 0.637481 0.643625 0.569124 0.582949 0.622888 0.605991 0.615207 0.645929 0.651306 0.659754 0.671275 0.683564 0.699693 0.719662 0.743472 0.71275 0.608295 0.412442 0.239631 0.201997 0.221966 0.327957 0.452381 0.529186 0.379416 0.394009 0.614439 0.701997 0.688172 0.6298 0.581413 0.656682 0.655146 0.637481 0.639785 0.651306 0.664363 0.670507 0.68126 0.691244 0.694316 0.694316 0.697389 0.691244 0.582181 0.764209 0.756528 0.768817 0.827189 0.538402 0.517665 0.477727 0.378648 0.309524 0.301843 0.284946 0.30722 0.309524 0.316436 0.314132 0.298003 0.269585 0.256528 0.253456 0.268817 0.28341 0.340246 0.463134 0.530722 0.695853 0.777266 0.602151 0.516129 0.436252 0.473118 0.43318 0.772657 0.50768 0.688172 0.640553 0.361751 0.293395 0.35023 0.332565 0.420891 0.411674 0.294931 0.229647 0.22427 0.247312 0.306452 0.360983 0.357911 0.31874 0.313364 0.265745 0.218126 0.242704 0.353303 0.392473 0.59447 0.732719 0.788786 0.880952 0.860983 0.884793 0.668203 0.612135 0.868664 0.877112 0.864055 0.843318 0.867896 0.869432 0.865591 0.837174 0.847926 0.863287 0.792627 0.466974 0.824885 0.854071 0.857143 0.83871 0.832565 0.819508 0.810292 0.805684 0.806452 0.808756 0.811828 0.816436 0.825653 0.834869 0.84255 0.83871 0.75192 0.413978 0.198925 0.456221 0.797235 0.849462 0.821813 0.695853 0.804916 0.799539 0.815668 0.813364 0.808756 0.801075 0.798771 0.798003 0.800307 0.804916 0.808756 0.813364 0.814132 0.819508 0.827189 0.834101 0.835637 0.84639 0.841014 0.834101 0.751152 0.849462 0.777266 0.334101 0.288018 0.439324 0.868664 0.948541 0.929339 0.862519 0.606759 0.971582 1 0.78341 0.524578 0.675115 0.384793 0.412442 0.286482 0.284946 0.290323 0.291091 0.291859 0.294163 0.314132 0.483871 0.778034 0.75192 0.639785 0.460829 0.862519 0.880184 0.85023 0.8702 0.864055 0.871736 0.84255 0.831797 0.743472 0.630568 0.549155 0.490783 0.410138 0.311828 0.326421 0.246544 0.331029 0.347926 0.288018 0.308756 0.450077 0.541475 0.655146 0.655914 0.731183 0.792627 0.777266 0.713518 0.423963 0.235791 0.400922 0.239631 0.228111 0.22427 0.217358 0.233487 0.286482 0.428571 0.438556 0.560676 0.49232 0.191244 0.178955 0.196621 0.164363 0.294931 0.329493 0.488479 0.282642 0.495392 0.544547 0.764209 0.74424 0.738863 0.743472 0.74808 0.758065 0.710445 0.6298 0.525346 0.281874 0.525346 0.396313 0.293395 0.366359 0.333333 0.502304 0.771889 0.461598 0.326421 0.484639 0.491551 0.558372 0.692012 0.703533 0.398618 0.307988 0.264977 0.227343 0.208141 0.201229 0.261137 0.378648 0.612135 0.731951 0.711214 0.754992 0.729647 0.709677 0.696621 0.682796 0.668971 0.656682 0.645161 0.635177 0.639017 0.641321 0.635945 0.634409 0.623656 0.627496 0.627496 0.625192 0.629032 0.6298 0.623656 0.621352 0.619816 0.619048 0.610599 0.600614 0.596774 0.587558 0.587558 0.579877 0.576805 0.573733 0.574501 0.573733 0.573733 0.569892 0.572965 0.568356 0.565284 0.564516 0.56298 0.561444 0.556836 0.556068 0.556068 0.553763 0.550691 0.551459 0.552995 0.552995 0.552995 0.5553 0.556836 0.556836 0.557604 0.473118 0.281874 0.367896 0.454685 0.489247 0.563748 0.504608 0.316436 0.459293 0.596006 0.606759 0.610599 0.609831 0.604455 0.596774 0.582181 0.571429 0.564516 0.551459 0.56298 0.506912 0.529954 0.384793 0.452381 0.490015 0.559908 0.536866 0.526882 0.503072 0.52381 0.530722 0.528418 0.548387 0.541475 0.50384 0.473118 0.484639 0.435484 0.302611 0.261137 0.225038 0.284178 0.380952 0.447773 0.408602 0.354839 0.395545 0.416283 0.417819 0.414747 0.411674 0.40553 0.400154 0.396313 0.394009 0.390169 0.387865 0.385561 0.385561 0.384793 0.383257 0.382488 0.37788 0.375576 0.372504 0.369432 0.367127 0.363287 0.360983 0.360215 0.360215 0.360983 0.358679 0.366359 0.333333 0.3702 0.371736 0.380952 0.325653 0.179724 0.168203 0.178187 0.288018 0.394009 0.390169 0.388633 0.384793 0.341014 0.339478 0.349462 0.357143 0.348694 0.337174 0.325653 0.314132 0.30722 0.295699 0.302611 0.297235 0.288018 0.282642 0.305684 0.30722 0.310292 0.310292 0.310292 0.306452 0.281874 0.210445 0.127496 0.112903 0.109831 0.169739 0.191244 0.257296 0.261137 0.261137 0.260369 0.253456 0.247312 0.222734 0.21275 0.22043 0.242704 0.232719 0.229647 0.221198 0.211982 0.204301 0.196621 0.188172 0.196621 0.191244 0.182028 0.162058 0.179724 0.18126 0.175115 0.170507 0.167435 0.164363 0.160522 0.154378 0.149002 0.143625 0.139785 0.135945 0.132873 0.130568 0.127496 0.122888 0.119048 0.114439 0.109831 0.105223 0.0975422 0.0898618 0.0906298 0.0890937 0.0852535 0.0821813 0.0791091 0.0760369 0.0729647 0.0706605 0.0683564 0.0660522 0.0637481 0.0614439 0.0591398 0.0568356 0.0545315 0.0522273 0.0499232 0.0483871 0.046851 0.0437788 0.0399386 0.0391705 0.0376344 0.0368664 0.0360983 0.0360983 0.0353303 0.0345622 0.0337942 0.0330261 0.0322581 0.03149 0.030722 0.0291859 0.0284178 0.0261137 0.0238095 0.0222734 0.0199693 0.0176651 0.016129 0.015361 0.0138249 0.0122888 0.0122888 0.0115207 0.0115207 0.0107527 0.00998464 0.00998464 0.00921659 0.00844854 0.00768049 0.00691244 0.00691244 0.00614439 0.00614439 0.00614439 0.00614439 0.00537634 0.00537634 0.00537634 0.00537634 0.00460829 0.00460829 0.00460829 0.00384025 0.00384025 0.00384025 0.00384025 0.00384025 0.00384025 0.00384025 0.00384025 0.00384025 0.00384025 0.00384025 0.00384025 0.00384025 0.00384025 0.00384025 0.00384025 0.00384025 0.00384025 0.00384025 0.00384025 0.00384025 0.00384025 0.00384025 0.00384025 0.00384025 0.00384025 0.00384025 0.00384025 0.00384025 0.00384025 0.00384025 0.00384025 0.00384025 0.00384025 0.00384025 0.00384025 0.00384025 0.00384025 0.00384025 0.00384025 0.00384025 0.00384025 0.00384025 0.00384025 0.00384025 0.00384025 0.00384025 0.00384025 0.00384025 0.00384025 0.00384025 0.00384025 0.00384025 0.00384025 0.00384025 0.00384025 0.00384025 0.00384025 0.00384025 0.00384025 0.00384025 0.00384025 0.00384025 0.00384025 0.00384025 0.00384025 0.00384025 0.00384025 0.00384025 0.00384025 0.00384025 0.00384025 0.00384025 0.00384025 0.00384025 0.00384025 0.00384025 0.00384025 0.00384025 0.00384025 0.00384025 0.00384025 0.00384025 0.00384025 0.00384025 0.00384025 0.00384025 0.00384025 0.00384025 0.00384025 0.00384025 0.00384025 0.00384025 0.00384025 0.00384025 0.00384025 0.00384025 0.00384025 0.00384025 0.00384025 0.00384025 0.00384025 0.00384025 0.00384025 0.00384025 0.00384025 0.00384025 0.00384025 0.00384025 0.00384025 0.00384025 0.00384025 0.00384025 0.00384025 0.00384025 0.00384025 0.00384025 0.00384025 0.00384025 0.00384025 0.00384025 0.00384025 0.00384025 0.00384025 0.00384025 0.00384025 0.00384025 0.00384025 0.00384025 0.00384025 0.00384025 0.00384025 0.00384025 0.00384025 0.00384025 0.00384025 0.00384025 0.00384025 0.00384025 0.00384025 0.00384025 0.00384025 0.00384025 0.00384025 0.00384025 0.00384025 0.00384025 0.00384025 0.00384025 0.00384025 0.00384025 0.00384025 0.00384025 0.00384025 0.00384025 0.00384025 0.00384025 0.00384025 0.00384025 0.00384025 0.00384025 0.00384025 0.00384025 0.00384025 0.00384025 0.00384025 0.00384025 0.00384025 0.00384025 0.00384025 0.00384025 0.00384025 0.00384025 0.00384025 0.00384025 0.00384025 0.00384025 0.00384025 0.00384025 0.00384025 0.00384025 0.00384025 0.00384025 0.00384025 0.00384025 0.00384025 0.00384025 0.00384025 0.00384025 0.00384025 0.00384025 0.00384025 0.00384025 0.00384025 0.00384025 0.00384025 0.00384025 0.00384025 0.00384025 0.00384025 0.00384025 0.00384025 0.00384025 0.00384025 0.00384025 0.00384025 0.00384025 0.00384025 0.00384025 0.00384025 0.00384025 0.00384025 0.00384025 0.00384025 0.00384025 0.00384025 0.00384025 0.00384025 0.00384025 0.00384025 0.00384025 0.00384025 0.00384025 0.00384025 0.00384025 0.00384025 0.00384025 0.00384025 0.00384025 0.00384025 0.00384025 0.00384025 0.00384025 0.00384025 0.00384025 0.00384025 0.00384025 0.00384025 0.00384025 0.00384025 0.00384025 0.00384025 0.00384025 0.00384025 0.00384025 0.00384025 0.00384025 0.00384025 0.00384025 0.00384025 0.00384025 0.00384025 0.00384025 0.00384025 0.00384025 0.00384025 0.00384025 0.00384025 0.00384025 0.00384025 0.00384025 0.00384025 0.00384025 0.00384025 0.00384025 0.00384025 0.00384025 0.00384025 0.00384025 0.00384025 0.00384025 0.00384025 0.00384025 0.00384025 0.00384025 0.00384025 0.00384025 0.00384025 0.00384025 0.00384025 0.00384025 0.00384025 0.00384025 0.00384025 0.00384025 0.00384025 0.00384025 0.00384025 0.00384025 0.00384025 0.00384025 0.00384025 0.00384025 0.00384025 0.00384025 0.00384025 0.00384025 0.00384025] action=normalize
Redirect        IEEELineCodes.DSS

! LINE DEFINITIONS
! Lines are defined by referring to a "linecode" that contains the impedances per unit length
! So the only properties required are the LineCode name and Length.  Units are assumed to match the definition
! since no units property is defined in either the Linecodes file or this file.
! Note that it is not necessary to explicitly specify the node connections for the 3-phase lines
! unless they are not ".1.2.3". However, they are spelled out here for clarity.
! The DSS assumes .1.2.3.0.0 ... for connections of 3 or more phases.
! Likewise, .1 is not necessary for 1-phase lines connected to phase 1. However, if it is connected
! to any other phase, it must be specified. For completeness, everything is spelled out here.
!
! Note that it is recommended that the "units=" property be used here and in the Linecode definition as well
! to avoid confusion in the future

! *** Original *** New Line.L115   Phases=3 Bus1=149.1.2.3  Bus2=1.1.2.3    LineCode=1    Length=0.4
! Since the default is 3-phase, the definition of this line can be simpler:

New Line.L115            Bus1=149        Bus2=1          LineCode=1    Length=0.4    units=kft

New Line.L1     Phases=1 Bus1=1.2        Bus2=2.2        LineCode=10   Length=0.175  units=kft
New Line.L2     Phases=1 Bus1=1.3        Bus2=3.3        LineCode=11   Length=0.25   units=kft
New Line.L3     Phases=3 Bus1=1.1.2.3    Bus2=7.1.2.3    LineCode=1    Length=0.3    units=kft
New Line.L4     Phases=1 Bus1=3.3        Bus2=4.3        LineCode=11   Length=0.2    units=kft
New Line.L5     Phases=1 Bus1=3.3        Bus2=5.3        LineCode=11   Length=0.325  units=kft
New Line.L6     Phases=1 Bus1=5.3        Bus2=6.3        LineCode=11   Length=0.25   units=kft
New Line.L7     Phases=3 Bus1=7.1.2.3    Bus2=8.1.2.3    LineCode=1    Length=0.2    units=kft
New Line.L8     Phases=1 Bus1=8.2        Bus2=12.2       LineCode=10   Length=0.225  units=kft
New Line.L9     Phases=1 Bus1=8.1        Bus2=9.1        LineCode=9    Length=0.225  units=kft
New Line.L10    Phases=3 Bus1=8.1.2.3    Bus2=13.1.2.3   LineCode=1    Length=0.3    units=kft
New Line.L11    Phases=1 Bus1=9r.1       Bus2=14.1       LineCode=9    Length=0.425  units=kft
New Line.L12    Phases=1 Bus1=13.3       Bus2=34.3       LineCode=11   Length=0.15   units=kft
New Line.L13    Phases=3 Bus1=13.1.2.3   Bus2=18.1.2.3   LineCode=2    Length=0.825  units=kft
New Line.L14    Phases=1 Bus1=14.1       Bus2=11.1       LineCode=9    Length=0.25   units=kft
New Line.L15    Phases=1 Bus1=14.1       Bus2=10.1       LineCode=9    Length=0.25   units=kft
New Line.L16    Phases=1 Bus1=15.3       Bus2=16.3       LineCode=11   Length=0.375  units=kft
New Line.L17    Phases=1 Bus1=15.3       Bus2=17.3       LineCode=11   Length=0.35   units=kft
New Line.L18    Phases=1 Bus1=18.1       Bus2=19.1       LineCode=9    Length=0.25   units=kft
New Line.L19    Phases=3 Bus1=18.1.2.3   Bus2=21.1.2.3   LineCode=2    Length=0.3    units=kft
New Line.L20    Phases=1 Bus1=19.1       Bus2=20.1       LineCode=9    Length=0.325  units=kft
New Line.L21    Phases=1 Bus1=21.2       Bus2=22.2       LineCode=10   Length=0.525  units=kft
New Line.L22    Phases=3 Bus1=21.1.2.3   Bus2=23.1.2.3   LineCode=2    Length=0.25   units=kft
New Line.L23    Phases=1 Bus1=23.3       Bus2=24.3       LineCode=11   Length=0.55   units=kft
New Line.L24    Phases=3 Bus1=23.1.2.3   Bus2=25.1.2.3   LineCode=2    Length=0.275  units=kft
New Line.L25    Phases=2 Bus1=25r.1.3    Bus2=26.1.3     LineCode=7    Length=0.35   units=kft
New Line.L26    Phases=3 Bus1=25.1.2.3   Bus2=28.1.2.3   LineCode=2    Length=0.2    units=kft
New Line.L27    Phases=2 Bus1=26.1.3     Bus2=27.1.3     LineCode=7    Length=0.275  units=kft
New Line.L28    Phases=1 Bus1=26.3       Bus2=31.3       LineCode=11   Length=0.225  units=kft
New Line.L29    Phases=1 Bus1=27.1       Bus2=33.1       LineCode=9    Length=0.5    units=kft
New Line.L30    Phases=3 Bus1=28.1.2.3   Bus2=29.1.2.3   LineCode=2    Length=0.3    units=kft
New Line.L31    Phases=3 Bus1=29.1.2.3   Bus2=30.1.2.3   LineCode=2    Length=0.35   units=kft
New Line.L32    Phases=3 Bus1=30.1.2.3   Bus2=250.1.2.3  LineCode=2    Length=0.2    units=kft
New Line.L33    Phases=1 Bus1=31.3       Bus2=32.3       LineCode=11   Length=0.3    units=kft
New Line.L34    Phases=1 Bus1=34.3       Bus2=15.3       LineCode=11   Length=0.1    units=kft
New Line.L35    Phases=2 Bus1=35.1.2     Bus2=36.1.2     LineCode=8    Length=0.65   units=kft
New Line.L36    Phases=3 Bus1=35.1.2.3   Bus2=40.1.2.3   LineCode=1    Length=0.25   units=kft
New Line.L37    Phases=1 Bus1=36.1       Bus2=37.1       LineCode=9    Length=0.3    units=kft
New Line.L38    Phases=1 Bus1=36.2       Bus2=38.2       LineCode=10   Length=0.25   units=kft
New Line.L39    Phases=1 Bus1=38.2       Bus2=39.2       LineCode=10   Length=0.325  units=kft
New Line.L40    Phases=1 Bus1=40.3       Bus2=41.3       LineCode=11   Length=0.325  units=kft
New Line.L41    Phases=3 Bus1=40.1.2.3   Bus2=42.1.2.3   LineCode=1    Length=0.25   units=kft
New Line.L42    Phases=1 Bus1=42.2       Bus2=43.2       LineCode=10   Length=0.5    units=kft
New Line.L43    Phases=3 Bus1=42.1.2.3   Bus2=44.1.2.3   LineCode=1    Length=0.2    units=kft
New Line.L44    Phases=1 Bus1=44.1       Bus2=45.1       LineCode=9    Length=0.2    units=kft
New Line.L45    Phases=3 Bus1=44.1.2.3   Bus2=47.1.2.3   LineCode=1    Length=0.25   units=kft
New Line.L46    Phases=1 Bus1=45.1       Bus2=46.1       LineCode=9    Length=0.3    units=kft
New Line.L47    Phases=3 Bus1=47.1.2.3   Bus2=48.1.2.3   LineCode=4    Length=0.15   units=kft
New Line.L48    Phases=3 Bus1=47.1.2.3   Bus2=49.1.2.3   LineCode=4    Length=0.25   units=kft
New Line.L49    Phases=3 Bus1=49.1.2.3   Bus2=50.1.2.3   LineCode=4    Length=0.25   units=kft
New Line.L50    Phases=3 Bus1=50.1.2.3   Bus2=51.1.2.3   LineCode=4    Length=0.25   units=kft
New Line.L51    Phases=3 Bus1=51.1.2.3   Bus2=151.1.2.3  LineCode=4    Length=0.5    units=kft
New Line.L52    Phases=3 Bus1=52.1.2.3   Bus2=53.1.2.3   LineCode=1    Length=0.2    units=kft
New Line.L53    Phases=3 Bus1=53.1.2.3   Bus2=54.1.2.3   LineCode=1    Length=0.125  units=kft
New Line.L54    Phases=3 Bus1=54.1.2.3   Bus2=55.1.2.3   LineCode=1    Length=0.275  units=kft
New Line.L55    Phases=3 Bus1=54.1.2.3   Bus2=57.1.2.3   LineCode=3    Length=0.35   units=kft
New Line.L56    Phases=3 Bus1=55.1.2.3   Bus2=56.1.2.3   LineCode=1    Length=0.275  units=kft
New Line.L57    Phases=1 Bus1=57.2       Bus2=58.2       LineCode=10   Length=0.25   units=kft
New Line.L58    Phases=3 Bus1=57.1.2.3   Bus2=60.1.2.3   LineCode=3    Length=0.75   units=kft
New Line.L59    Phases=1 Bus1=58.2       Bus2=59.2       LineCode=10   Length=0.25   units=kft
New Line.L60    Phases=3 Bus1=60.1.2.3   Bus2=61.1.2.3   LineCode=5    Length=0.55   units=kft
New Line.L61    Phases=3 Bus1=60.1.2.3   Bus2=62.1.2.3   LineCode=12   Length=0.25   units=kft
New Line.L62    Phases=3 Bus1=62.1.2.3   Bus2=63.1.2.3   LineCode=12   Length=0.175  units=kft
New Line.L63    Phases=3 Bus1=63.1.2.3   Bus2=64.1.2.3   LineCode=12   Length=0.35   units=kft
New Line.L64    Phases=3 Bus1=64.1.2.3   Bus2=65.1.2.3   LineCode=12   Length=0.425  units=kft
New Line.L65    Phases=3 Bus1=65.1.2.3   Bus2=66.1.2.3   LineCode=12   Length=0.325  units=kft
New Line.L66    Phases=1 Bus1=67.1       Bus2=68.1       LineCode=9    Length=0.2    units=kft
New Line.L67    Phases=3 Bus1=67.1.2.3   Bus2=72.1.2.3   LineCode=3    Length=0.275  units=kft
New Line.L68    Phases=3 Bus1=67.1.2.3   Bus2=97.1.2.3   LineCode=3    Length=0.25   units=kft
New Line.L69    Phases=1 Bus1=68.1       Bus2=69.1       LineCode=9    Length=0.275  units=kft
New Line.L70    Phases=1 Bus1=69.1       Bus2=70.1       LineCode=9    Length=0.325  units=kft
New Line.L71    Phases=1 Bus1=70.1       Bus2=71.1       LineCode=9    Length=0.275  units=kft
New Line.L72    Phases=1 Bus1=72.3       Bus2=73.3       LineCode=11   Length=0.275  units=kft
New Line.L73    Phases=3 Bus1=72.1.2.3   Bus2=76.1.2.3   LineCode=3    Length=0.2    units=kft
New Line.L74    Phases=1 Bus1=73.3       Bus2=74.3       LineCode=11   Length=0.35   units=kft
New Line.L75    Phases=1 Bus1=74.3       Bus2=75.3       LineCode=11   Length=0.4    units=kft
New Line.L76    Phases=3 Bus1=76.1.2.3   Bus2=77.1.2.3   LineCode=6    Length=0.4    units=kft
New Line.L77    Phases=3 Bus1=76.1.2.3   Bus2=86.1.2.3   LineCode=3    Length=0.7    units=kft
New Line.L78    Phases=3 Bus1=77.1.2.3   Bus2=78.1.2.3   LineCode=6    Length=0.1    units=kft
New Line.L79    Phases=3 Bus1=78.1.2.3   Bus2=79.1.2.3   LineCode=6    Length=0.225  units=kft
New Line.L80    Phases=3 Bus1=78.1.2.3   Bus2=80.1.2.3   LineCode=6    Length=0.475  units=kft
New Line.L81    Phases=3 Bus1=80.1.2.3   Bus2=81.1.2.3   LineCode=6    Length=0.175  units=kft
New Line.L82    Phases=3 Bus1=81.1.2.3   Bus2=82.1.2.3   LineCode=6    Length=0.25   units=kft
New Line.L83    Phases=1 Bus1=81.3       Bus2=84.3       LineCode=11   Length=0.675  units=kft
New Line.L84    Phases=3 Bus1=82.1.2.3   Bus2=83.1.2.3   LineCode=6    Length=0.25   units=kft
New Line.L85    Phases=1 Bus1=84.3       Bus2=85.3       LineCode=11   Length=0.475  units=kft
New Line.L86    Phases=3 Bus1=86.1.2.3   Bus2=87.1.2.3   LineCode=6    Length=0.45   units=kft
New Line.L87    Phases=1 Bus1=87.1       Bus2=88.1       LineCode=9    Length=0.175  units=kft
New Line.L88    Phases=3 Bus1=87.1.2.3   Bus2=89.1.2.3   LineCode=6    Length=0.275  units=kft
New Line.L89    Phases=1 Bus1=89.2       Bus2=90.2       LineCode=10   Length=0.25   units=kft
New Line.L90    Phases=3 Bus1=89.1.2.3   Bus2=91.1.2.3   LineCode=6    Length=0.225  units=kft
New Line.L91    Phases=1 Bus1=91.3       Bus2=92.3       LineCode=11   Length=0.3    units=kft
New Line.L92    Phases=3 Bus1=91.1.2.3   Bus2=93.1.2.3   LineCode=6    Length=0.225  units=kft
New Line.L93    Phases=1 Bus1=93.1       Bus2=94.1       LineCode=9    Length=0.275  units=kft
New Line.L94    Phases=3 Bus1=93.1.2.3   Bus2=95.1.2.3   LineCode=6    Length=0.3    units=kft
New Line.L95    Phases=1 Bus1=95.2       Bus2=96.2       LineCode=10   Length=0.2    units=kft
New Line.L96    Phases=3 Bus1=97.1.2.3   Bus2=98.1.2.3   LineCode=3    Length=0.275  units=kft
New Line.L97    Phases=3 Bus1=98.1.2.3   Bus2=99.1.2.3   LineCode=3    Length=0.55   units=kft
New Line.L98    Phases=3 Bus1=99.1.2.3   Bus2=100.1.2.3  LineCode=3    Length=0.3    units=kft
New Line.L99    Phases=3 Bus1=100.1.2.3  Bus2=450.1.2.3  LineCode=3    Length=0.8    units=kft
New Line.L118   Phases=3 Bus1=197.1.2.3  Bus2=101.1.2.3  LineCode=3    Length=0.25   units=kft
New Line.L100   Phases=1 Bus1=101.3      Bus2=102.3      LineCode=11   Length=0.225  units=kft
New Line.L101   Phases=3 Bus1=101.1.2.3  Bus2=105.1.2.3  LineCode=3    Length=0.275  units=kft
New Line.L102   Phases=1 Bus1=102.3      Bus2=103.3      LineCode=11   Length=0.325  units=kft
New Line.L103   Phases=1 Bus1=103.3      Bus2=104.3      LineCode=11   Length=0.7    units=kft
New Line.L104   Phases=1 Bus1=105.2      Bus2=106.2      LineCode=10   Length=0.225  units=kft
New Line.L105   Phases=3 Bus1=105.1.2.3  Bus2=108.1.2.3  LineCode=3    Length=0.325  units=kft
New Line.L106   Phases=1 Bus1=106.2      Bus2=107.2      LineCode=10   Length=0.575  units=kft
New Line.L107   Phases=1 Bus1=108.1      Bus2=109.1      LineCode=9    Length=0.45   units=kft
New Line.L108   Phases=3 Bus1=108.1.2.3  Bus2=300.1.2.3  LineCode=3    Length=1      units=kft
New Line.L109   Phases=1 Bus1=109.1      Bus2=110.1      LineCode=9    Length=0.3    units=kft
New Line.L110   Phases=1 Bus1=110.1      Bus2=111.1      LineCode=9    Length=0.575  units=kft
New Line.L111   Phases=1 Bus1=110.1      Bus2=112.1      LineCode=9    Length=0.125  units=kft
New Line.L112   Phases=1 Bus1=112.1      Bus2=113.1      LineCode=9    Length=0.525  units=kft
New Line.L113   Phases=1 Bus1=113.1      Bus2=114.1      LineCode=9    Length=0.325  units=kft
New Line.L114   Phases=3 Bus1=135.1.2.3  Bus2=35.1.2.3   LineCode=4    Length=0.375  units=kft
New Line.L116   Phases=3 Bus1=152.1.2.3  Bus2=52.1.2.3   LineCode=1    Length=0.4    units=kft
New Line.L117   Phases=3 Bus1=160r.1.2.3 Bus2=67.1.2.3   LineCode=6    Length=0.35   units=kft


! NORMALLY CLOSED SWITCHES ARE DEFINED AS SHORT LINES
! Could also be defned by setting the Switch=Yes property

New Line.Sw1    phases=3  Bus1=150r   Bus2=149    r1=1e-3 r0=1e-3 x1=0.000 x0=0.000 c1=0.000 c0=0.000 Length=0.001
New Line.Sw2    phases=3  Bus1=13     Bus2=152    r1=1e-3 r0=1e-3 x1=0.000 x0=0.000 c1=0.000 c0=0.000 Length=0.001
New Line.Sw3    phases=3  Bus1=18     Bus2=135    r1=1e-3 r0=1e-3 x1=0.000 x0=0.000 c1=0.000 c0=0.000 Length=0.001
New Line.Sw4    phases=3  Bus1=60     Bus2=160    r1=1e-3 r0=1e-3 x1=0.000 x0=0.000 c1=0.000 c0=0.000 Length=0.001
New Line.Sw5    phases=3  Bus1=97     Bus2=197    r1=1e-3 r0=1e-3 x1=0.000 x0=0.000 c1=0.000 c0=0.000 Length=0.001
New Line.Sw6    phases=3  Bus1=61     Bus2=61s    r1=1e-3 r0=1e-3 x1=0.000 x0=0.000 c1=0.000 c0=0.000 Length=0.001

! NORMALLY OPEN SWITCHES; DEFINED AS SHORT LINE TO OPEN BUS SO WE CAN SEE OPEN POINT VOLTAGES. 
! COULD ALSO BE DEFINED AS DISABLED OR THE TERMINCAL COULD BE OPENED AFTER BEING DEFINED

New Line.Sw7    phases=3  Bus1=151    Bus2=300_OPEN   r1=1e-3 r0=1e-3  x1=0.000 x0=0.000 c1=0.000 c0=0.000 Length=0.001
New Line.Sw8    phases=1  Bus1=54.1   Bus2=94_OPEN.1  r1=1e-3 r0=1e-3  x1=0.000 x0=0.000 c1=0.000 c0=0.000 Length=0.001

! LOAD TRANSFORMER AT 61s/610
! This is a 150 kVA Delta-Delta stepdown from 4160V to 480V.

New Transformer.XFM1  Phases=3   Windings=2 Xhl=2.72
~ wdg=1 bus=61s       conn=Delta kv=4.16    kva=150    %r=0.635
~ wdg=2 bus=610       conn=Delta kv=0.48    kva=150    %r=0.635

! CAPACITORS
! Capacitors are 2-terminal devices. The 2nd terminal (Bus2=...) defaults to all phases
! connected to ground (Node 0). Thus, it need not be specified if a Y-connected or L-N connected
! capacitor is desired

New Capacitor.C83       Bus1=83      Phases=3     kVAR=600     kV=4.16
New Capacitor.C88a      Bus1=88.1    Phases=1     kVAR=50      kV=2.402
New Capacitor.C90b      Bus1=90.2    Phases=1     kVAR=50      kV=2.402
New Capacitor.C92c      Bus1=92.3    Phases=1     kVAR=50      kV=2.402


!REGULATORS - REDIRECT TO DEFINITIONS FILE
! This file contains definitions for the remainder of regulators on the feeder:

Redirect IEEE123Regulators.DSS

! SPOT LOADS -- REDIRECT INPUT STREAM TO LOAD DEFINITIONS FILE

Redirect IEEE123Loads.DSS

! All devices in the test feeder are now defined.
!
! Many of the voltages are reported in per unit, so it is important to establish the base voltages at each bus so
! that we can compare with the result with greater ease.
! We will let the DSS compute the voltage bases by doing a zero-load power flow.
! There are only two voltage bases in the problem: 4160V and 480V. These must be expressed in kV

Set VoltageBases = [4.16, 0.48]    ! ARRAY OF VOLTAGES IN KV
CalcVoltageBases  ! PERFORMS ZERO LOAD POWER FLOW TO ESTIMATE VOLTAGE BASES
